parallel/peak_load/80pc/TNB_DUMA_EXP_VOLTAGES.CSV
Bus, BasekV, Node1, Magnitude1, Angle1, pu1, Node2, Magnitude2, Angle2, pu2, Node3, Magnitude3, Angle3, pu3
"PPU_DUMA_33KV", 33, 1,    18888.8,    3.8,   0.99141, 2,    18888.8, -116.2,   0.99141, 3,    18888.8,  123.8,   0.99141
"PPU_DUMA_11KV", 11, 1,    6026.52,  -13.3,   0.94893, 2,    6026.52, -133.3,   0.94893, 3,    6026.52,  106.7,   0.94893
"RPPLNGI2", 11, 1,    6125.13,  -12.1,   0.96446, 2,    6125.13, -132.1,   0.96446, 3,    6125.13,  107.9,   0.96446
"PDTJLNMASJID", 11, 1,     6199.8,  -11.3,   0.97622, 2,     6199.8, -131.3,   0.97622, 3,     6199.8,  108.7,   0.97622
"BELLA", 11, 1,     6249.9,  -10.7,    0.9841, 2,     6249.9, -130.7,    0.9841, 3,     6249.9,  109.3,    0.9841
"PSTPDGN", 11, 1,    6275.04,  -10.5,   0.98806, 2,    6275.04, -130.5,   0.98806, 3,    6275.04,  109.5,   0.98806
"PAMDRA", 11, 1,    6038.75,  -13.1,   0.95086, 2,    6038.75, -133.1,   0.95086, 3,    6038.75,  106.9,   0.95086
"DUMA4", 11, 1,     6079.6,  -12.9,   0.95729, 2,     6079.6, -132.9,   0.95729, 3,     6079.6,  107.1,   0.95729
"PLSDRA", 11, 1,    6167.96,  -12.4,    0.9712, 2,    6167.96, -132.4,    0.9712, 3,    6167.96,  107.6,    0.9712
"SSU_UPTWRES_IR1", 11, 1,     6179.8,  -12.3,   0.97307, 2,     6179.8, -132.3,   0.97307, 3,     6179.8,  107.7,   0.97307
"ATRIA_1", 11, 1,    6179.68,  -11.7,   0.97305, 2,    6179.68, -131.7,   0.97305, 3,    6179.68,  108.3,   0.97305
"HAWKER", 11, 1,     6204.7,  -10.5,   0.97699, 2,     6204.7, -130.5,   0.97699, 3,     6204.7,  109.5,   0.97699
"PRMTE", 11, 1,    6096.97,  -12.1,   0.96002, 2,    6096.97, -132.1,   0.96002, 3,    6096.97,  107.9,   0.96002
"PRMTA", 11, 1,    6110.05,  -11.9,   0.96208, 2,    6110.05, -131.9,   0.96208, 3,    6110.05,  108.1,   0.96208
"PMONTB", 11, 1,    6123.22,  -11.9,   0.96416, 2,    6123.22, -131.9,   0.96416, 3,    6123.22,  108.1,   0.96416
"DUMA7", 11, 1,    6066.15,  -12.8,   0.95517, 2,    6066.15, -132.8,   0.95517, 3,    6066.15,  107.2,   0.95517
"HAUS", 11, 1,    6154.05,  -12.4,   0.96901, 2,    6154.05, -132.4,   0.96901, 3,    6154.05,  107.6,   0.96901
"DUMA6", 11, 1,    6395.03,  -11.4,     1.007, 2,    6395.04, -131.4,     1.007, 3,    6395.04,  108.6,     1.007
"DUMA13", 11, 1,    6617.03,  -10.5,    1.0419, 2,    6617.03, -130.5,    1.0419, 3,    6617.04,  109.5,    1.0419
"SSU_DUMA5_IM2", 11, 1,    6643.87,  -10.2,    1.0461, 2,    6643.87, -130.2,    1.0461, 3,    6643.88,  109.8,    1.0461
"PLNGI_B", 11, 1,    6090.43,  -12.7,   0.95899, 2,    6090.43, -132.7,   0.95899, 3,    6090.43,  107.3,   0.95899
"PLNGI_D", 11, 1,    6124.95,  -12.3,   0.96443, 2,    6124.95, -132.3,   0.96443, 3,    6124.95,  107.7,   0.96443
"PDTLITRAK", 11, 1,    6296.85,  -10.4,    0.9915, 2,    6296.85, -130.4,    0.9915, 3,    6296.85,  109.6,    0.9915
"DUMA12", 11, 1,    6407.59,   -9.3,    1.0089, 2,    6407.59, -129.3,    1.0089, 3,    6407.59,  110.7,    1.0089
"TMNGH4", 11, 1,    6515.62,   -8.8,    1.0259, 2,    6515.63, -128.8,    1.0259, 3,    6515.62,  111.2,    1.0259
"SSU_TMEGAH3_IR1", 11, 1,    6558.61,   -8.6,    1.0327, 2,    6558.61, -128.6,    1.0327, 3,    6558.61,  111.4,    1.0327
"TMNGH2", 11, 1,    6576.35,   -8.6,    1.0355, 2,    6576.35, -128.6,    1.0355, 3,    6576.35,  111.4,    1.0355
"SPRK9", 11, 1,    6236.28,  -10.8,   0.98196, 2,    6236.28, -130.8,   0.98196, 3,    6236.28,  109.2,   0.98196
"BOMBA", 11, 1,    6249.23,  -10.7,     0.984, 2,    6249.23, -130.7,     0.984, 3,    6249.23,  109.3,     0.984
"SPRK8", 11, 1,    6281.52,  -10.5,   0.98908, 2,    6281.52, -130.5,   0.98908, 3,    6281.52,  109.5,   0.98908
"SSU_UPTWRES_IM2", 11, 1,    6065.05,  -12.8,     0.955, 2,    6065.05, -132.8,     0.955, 3,    6065.05,  107.2,     0.955
"MAYBANK", 11, 1,    6127.03,  -12.1,   0.96476, 2,    6127.03, -132.1,   0.96476, 3,    6127.03,  107.9,   0.96476
"DUMA8", 11, 1,    6138.96,  -12.1,   0.96663, 2,    6138.96, -132.1,   0.96663, 3,    6138.96,  107.9,   0.96663
"SSU_DSARCNTR_IR1", 11, 1,    6060.14,  -13.0,   0.95423, 2,    6060.14, -133.0,   0.95423, 3,    6060.14,  107.0,   0.95423
"DUMA9", 11, 1,    6208.03,  -11.3,   0.97751, 2,    6208.03, -131.3,   0.97751, 3,    6208.03,  108.7,   0.97751
"DUMA1", 11, 1,    6282.95,  -10.5,   0.98931, 2,    6282.95, -130.5,   0.98931, 3,    6282.95,  109.5,   0.98931
"ELITE", 11, 1,    6309.85,  -10.2,   0.99354, 2,    6309.85, -130.2,   0.99354, 3,    6309.85,  109.8,   0.99354
"DUMA10", 11, 1,    6170.62,  -11.8,   0.97162, 2,    6170.62, -131.8,   0.97162, 3,    6170.62,  108.2,   0.97162
"BALAIPOLIS", 11, 1,    6172.14,  -11.8,   0.97186, 2,    6172.14, -131.8,   0.97186, 3,    6172.14,  108.2,   0.97186
"PPU_DUMA_VCB1", 33, 1,          0,    0.0,         0, 2,          0,    0.0,         0, 3,          0,    0.0,         0
